Version 4.1
SHEET 1 3112 1000
WIRE -432 192 -432 128
WIRE -80 224 -208 224
WIRE -144 256 -144 208
WIRE -208 272 -208 224
WIRE -176 272 -208 272
WIRE 864 272 848 272
WIRE 1296 272 1280 272
WIRE 1696 272 1680 272
WIRE 2096 272 2080 272
WIRE -80 288 -80 224
WIRE -80 288 -112 288
WIRE -32 288 -80 288
WIRE 80 288 -32 288
WIRE 400 288 400 256
WIRE 496 288 496 256
WIRE 1056 288 1040 288
WIRE 1488 288 1472 288
WIRE 1888 288 1872 288
WIRE 2288 288 2272 288
WIRE -432 304 -432 272
WIRE -304 304 -432 304
WIRE -176 304 -304 304
WIRE -32 304 -32 288
WIRE 864 304 848 304
WIRE 1296 304 1280 304
WIRE 1696 304 1680 304
WIRE 2096 304 2080 304
WIRE 1056 320 1040 320
WIRE 1488 320 1472 320
WIRE 1888 320 1872 320
WIRE 2288 320 2272 320
WIRE 864 336 848 336
WIRE 1296 336 1280 336
WIRE 1696 336 1680 336
WIRE 2096 336 2080 336
WIRE 1056 352 1040 352
WIRE 1488 352 1472 352
WIRE 1888 352 1872 352
WIRE 2288 352 2272 352
WIRE -432 368 -432 304
WIRE -144 368 -144 320
WIRE 864 368 848 368
WIRE 1296 368 1280 368
WIRE 1696 368 1680 368
WIRE 2096 368 2080 368
WIRE 320 400 320 368
WIRE 400 400 400 368
WIRE 496 400 496 368
WIRE -432 464 -432 448
WIRE 864 496 848 496
WIRE 1056 512 1040 512
WIRE 1296 512 1280 512
WIRE 864 528 848 528
WIRE 1488 528 1472 528
WIRE 1696 528 1680 528
WIRE 1056 544 1040 544
WIRE 1296 544 1280 544
WIRE 1888 544 1872 544
WIRE 2096 544 2080 544
WIRE 864 560 848 560
WIRE 1488 560 1472 560
WIRE 1696 560 1680 560
WIRE 2288 560 2272 560
WIRE 1056 576 1040 576
WIRE 1296 576 1280 576
WIRE 1888 576 1872 576
WIRE 2096 576 2080 576
WIRE 864 592 848 592
WIRE 1488 592 1472 592
WIRE 1696 592 1680 592
WIRE 2288 592 2272 592
WIRE 1296 608 1280 608
WIRE 1888 608 1872 608
WIRE 2096 608 2080 608
WIRE 1696 624 1680 624
WIRE 2288 624 2272 624
WIRE 2096 640 2080 640
FLAG 400 400 0
FLAG 400 256 VDD
IOPIN 400 256 Out
FLAG 320 400 0
FLAG 320 368 VSS
IOPIN 320 368 Out
FLAG 496 400 0
FLAG 496 256 Sig
IOPIN 496 256 Out
FLAG 848 368 VSS
IOPIN 848 368 In
FLAG 848 336 VDD
IOPIN 848 336 In
FLAG 848 304 Tap1
IOPIN 848 304 In
FLAG 848 272 Sig
IOPIN 848 272 In
FLAG 1056 288 S1DIFF
IOPIN 1056 288 Out
FLAG -432 128 VDD
IOPIN -432 128 Out
FLAG -144 208 VDD
IOPIN -144 208 In
FLAG -144 368 0
FLAG 80 288 Tap1
IOPIN 80 288 Out
FLAG -32 368 0
FLAG -304 368 0
FLAG 1056 320 S1
IOPIN 1056 320 Out
FLAG -432 464 0
FLAG 1280 368 VSS
IOPIN 1280 368 In
FLAG 1280 336 VDD
IOPIN 1280 336 In
FLAG 1280 304 Tap1
IOPIN 1280 304 In
FLAG 1280 272 S1
IOPIN 1280 272 In
FLAG 1488 288 S2DIFF
IOPIN 1488 288 Out
FLAG 1488 320 S2
IOPIN 1488 320 Out
FLAG 1680 368 VSS
IOPIN 1680 368 In
FLAG 1680 336 VDD
IOPIN 1680 336 In
FLAG 1680 304 Tap1
IOPIN 1680 304 In
FLAG 1680 272 S2
IOPIN 1680 272 In
FLAG 1888 288 S3DIFF
IOPIN 1888 288 Out
FLAG 1888 320 S3
IOPIN 1888 320 Out
FLAG 2080 368 VSS
IOPIN 2080 368 In
FLAG 2080 336 VDD
IOPIN 2080 336 In
FLAG 2080 304 Tap1
IOPIN 2080 304 In
FLAG 2080 272 S3
IOPIN 2080 272 In
FLAG 2288 288 S4DIFF
IOPIN 2288 288 Out
FLAG 2288 320 S4
IOPIN 2288 320 Out
FLAG 848 592 VSS
IOPIN 848 592 In
FLAG 848 560 VDD
IOPIN 848 560 In
FLAG 848 528 Tap1
IOPIN 848 528 In
FLAG 848 496 S4
IOPIN 848 496 In
FLAG 1056 512 S5DIFF
IOPIN 1056 512 Out
FLAG 1056 544 S5
IOPIN 1056 544 Out
FLAG 1280 608 VSS
IOPIN 1280 608 In
FLAG 1280 576 VDD
IOPIN 1280 576 In
FLAG 1280 544 Tap1
IOPIN 1280 544 In
FLAG 1280 512 S5
IOPIN 1280 512 In
FLAG 1488 528 S6DIFF
IOPIN 1488 528 Out
FLAG 1488 560 S6
IOPIN 1488 560 Out
FLAG 1680 624 VSS
IOPIN 1680 624 In
FLAG 1680 592 VDD
IOPIN 1680 592 In
FLAG 1680 560 Tap1
IOPIN 1680 560 In
FLAG 1680 528 S6
IOPIN 1680 528 In
FLAG 1888 544 S7DIFF
IOPIN 1888 544 Out
FLAG 1888 576 S7
IOPIN 1888 576 Out
FLAG 2080 640 VSS
IOPIN 2080 640 In
FLAG 2080 608 VDD
IOPIN 2080 608 In
FLAG 2080 576 Tap1
IOPIN 2080 576 In
FLAG 2080 544 S7
IOPIN 2080 544 In
FLAG 2288 560 S8DIFF
IOPIN 2288 560 Out
FLAG 2288 592 S8
IOPIN 2288 592 Out
FLAG 1056 352 T1
IOPIN 1056 352 Out
FLAG 1488 352 T2
IOPIN 1488 352 Out
FLAG 1888 352 T3
IOPIN 1888 352 Out
FLAG 2288 352 T4
IOPIN 2288 352 Out
FLAG 1056 576 T5
IOPIN 1056 576 Out
FLAG 1488 592 T6
IOPIN 1488 592 Out
FLAG 1888 608 T7
IOPIN 1888 608 Out
FLAG 2288 624 T8
IOPIN 2288 624 Out
SYMBOL voltage 400 272 R0
WINDOW 123 0 0 Left 0
WINDOW 39 0 0 Left 0
SYMATTR InstName V1
SYMATTR Value 5
SYMBOL voltage 496 272 R0
WINDOW 123 0 0 Left 0
WINDOW 39 0 0 Left 0
SYMATTR InstName V2
SYMATTR Value SINE(2.5 1 1k)
SYMBOL res -448 352 R0
SYMATTR InstName R2
SYMATTR Value 10K
SYMBOL res -448 176 R0
SYMATTR InstName R3
SYMATTR Value 10K
SYMBOL cap -48 304 R0
WINDOW 3 40 40 Left 2
SYMATTR InstName C5
SYMATTR Value 2µF
SYMBOL cap -320 304 R0
SYMATTR InstName C6
SYMATTR Value 1nF
SYMBOL stage_1bit 944 320 R0
SYMATTR InstName X1
SYMBOL stage_1bit 1376 320 R0
SYMATTR InstName X2
SYMBOL OpAmps\\LT1360 -144 288 R0
SYMATTR InstName U1
SYMBOL stage_1bit 1776 320 R0
SYMATTR InstName X3
SYMBOL stage_1bit 2176 320 R0
SYMATTR InstName X4
SYMBOL stage_1bit 944 544 R0
SYMATTR InstName X5
SYMBOL stage_1bit 1376 560 R0
SYMATTR InstName X6
SYMBOL stage_1bit 1776 576 R0
SYMATTR InstName X7
SYMBOL stage_1bit 2176 592 R0
SYMATTR InstName X8
TEXT 312 448 Left 2 !.tran 0 5ms 0 10us uic
TEXT 136 752 Left 2 !B1 quant 0 V=floor(V(Sig)/0.0195)*0.0195
TEXT 800 776 Left 2 !B_b1 b1 0 V=if(V(t1)>2.5, 1, 0)\nB_b2 b2 0 V=if(V(t2)>2.5, 1, 0)\nB_b3 b3 0 V=if(V(t3)>2.5, 1, 0)\nB_b4 b4 0 V=if(V(t4)>2.5, 1, 0)\n \nB2 recon 0 V=(8*V(b1) + 4*V(b2) + 2*V(b3) + V(b4)) * 0.3125
