Version 4.1
SHEET 1 1580 680
WIRE 80 144 64 144
WIRE 192 160 176 160
WIRE 80 192 64 192
WIRE 192 208 176 208
WIRE 80 240 64 240
FLAG 64 144 C1
IOPIN 64 144 In
FLAG 64 192 C2
IOPIN 64 192 In
FLAG 64 240 C3
IOPIN 64 240 In
FLAG 192 160 B1
IOPIN 192 160 Out
FLAG 192 208 B2
IOPIN 192 208 Out
TEXT -96 288 Left 2 !B1_1 B2 0 V=if(V(comp0)+V(comp1)+V(comp2)>12.5,5,if(V(comp0)+V(comp1)+V(comp2)>7.5,0,if(V(comp0)+V(comp1)+V(comp2)>2.5,5,0)))\nB2_2 B1 0 V=if(V(comp1)>2.5,5,0)
