Version 4.1
SHEET 1 880 680
WIRE -4048 -17488 -4080 -17488
WIRE -4048 -17456 -4048 -17488
WIRE -4608 -17408 -4640 -17408
WIRE -2928 -17408 -3024 -17408
WIRE -4176 -17392 -4208 -17392
WIRE -2864 -17392 -2992 -17392
WIRE -2752 -17392 -2784 -17392
WIRE -3664 -17376 -3696 -17376
WIRE -3648 -17344 -3728 -17344
WIRE -3520 -17344 -3568 -17344
WIRE -4608 -17328 -4608 -17408
WIRE -4176 -17328 -4208 -17328
WIRE -2928 -17328 -2928 -17408
WIRE -3120 -17312 -3136 -17312
WIRE -3104 -17312 -3120 -17312
WIRE -2992 -17312 -2992 -17392
WIRE -2992 -17312 -3024 -17312
WIRE -2960 -17312 -2992 -17312
WIRE -4640 -17296 -4672 -17296
WIRE -4512 -17296 -4560 -17296
WIRE -3824 -17296 -3920 -17296
WIRE -3728 -17296 -3728 -17344
WIRE -3728 -17296 -3744 -17296
WIRE -2864 -17296 -2896 -17296
WIRE -3664 -17280 -3664 -17376
WIRE -2864 -17280 -2864 -17296
WIRE -2752 -17280 -2752 -17392
WIRE -2752 -17280 -2864 -17280
WIRE -2720 -17280 -2752 -17280
WIRE -4640 -17264 -4672 -17264
WIRE -4176 -17264 -4208 -17264
WIRE -3728 -17264 -3728 -17296
WIRE -3696 -17264 -3728 -17264
WIRE -3520 -17248 -3520 -17344
WIRE -3520 -17248 -3632 -17248
WIRE -3488 -17248 -3520 -17248
WIRE -3376 -17248 -3408 -17248
WIRE -3344 -17248 -3376 -17248
WIRE -2960 -17248 -2960 -17280
WIRE -2960 -17248 -2992 -17248
WIRE -3696 -17232 -3728 -17232
WIRE -4624 -17216 -4624 -17232
WIRE -4608 -17216 -4608 -17232
WIRE -4608 -17216 -4624 -17216
WIRE -4592 -17216 -4592 -17232
WIRE -4592 -17216 -4608 -17216
WIRE -3376 -17216 -3376 -17248
WIRE -4176 -17200 -4208 -17200
WIRE -3824 -17184 -3840 -17184
WIRE -3728 -17184 -3728 -17232
WIRE -3728 -17184 -3744 -17184
WIRE -3120 -17168 -3120 -17312
WIRE -2928 -17168 -2928 -17264
WIRE -2928 -17168 -3120 -17168
WIRE -4624 -17136 -4624 -17216
WIRE -4624 -17136 -4656 -17136
WIRE -3728 -17136 -3728 -17184
WIRE -3664 -17120 -3664 -17216
WIRE -3376 -17120 -3376 -17152
WIRE -3376 -17120 -3664 -17120
WIRE -5152 -17072 -5152 -17120
WIRE -5024 -17072 -5024 -17120
WIRE -3728 -17024 -3728 -17056
WIRE -3664 -17024 -3664 -17120
WIRE -3664 -17024 -3728 -17024
WIRE -4624 -16976 -4656 -16976
WIRE -5152 -16960 -5152 -16992
WIRE -5024 -16960 -5024 -16992
WIRE -4624 -16896 -4624 -16976
WIRE -4176 -16880 -4208 -16880
WIRE -3872 -16880 -3920 -16880
WIRE -4656 -16864 -4688 -16864
WIRE -4528 -16864 -4576 -16864
WIRE -4656 -16832 -4688 -16832
WIRE -4176 -16816 -4208 -16816
WIRE -4640 -16784 -4640 -16800
WIRE -4624 -16784 -4624 -16800
WIRE -4624 -16784 -4640 -16784
WIRE -4608 -16784 -4608 -16800
WIRE -4608 -16784 -4624 -16784
WIRE -4640 -16704 -4640 -16784
WIRE -4640 -16704 -4672 -16704
WIRE -4112 -16656 -4112 -16704
WIRE -4112 -16656 -4176 -16656
WIRE -3984 -16656 -3984 -16704
WIRE -3984 -16656 -4112 -16656
FLAG -4656 -17136 VSS
IOPIN -4656 -17136 In
FLAG -3136 -17312 VSS
IOPIN -3136 -17312 In
FLAG -2992 -17248 DIFF
IOPIN -2992 -17248 In
FLAG -2720 -17280 Out
IOPIN -2720 -17280 Out
FLAG -3024 -17408 VDD
IOPIN -3024 -17408 In
FLAG -4640 -17408 VDD
IOPIN -4640 -17408 In
FLAG -4512 -17296 Trig1
IOPIN -4512 -17296 Out
FLAG -4672 -16704 VSS
IOPIN -4672 -16704 In
FLAG -4656 -16976 VDD
IOPIN -4656 -16976 In
FLAG -4528 -16864 Trig2
IOPIN -4528 -16864 Out
FLAG -4080 -17488 VDD
IOPIN -4080 -17488 In
FLAG -3872 -16880 VDD
IOPIN -3872 -16880 In
FLAG -4176 -16656 VSS
IOPIN -4176 -16656 In
FLAG -3344 -17248 DIFF
IOPIN -3344 -17248 Out
FLAG -3840 -17184 Sig
IOPIN -3840 -17184 In
FLAG -3696 -17376 VDD
IOPIN -3696 -17376 In
FLAG -3728 -17024 VSS
IOPIN -3728 -17024 In
FLAG -4688 -16832 Sig
IOPIN -4688 -16832 In
FLAG -4672 -17264 Sig
IOPIN -4672 -17264 In
FLAG -5024 -16960 0
FLAG -5152 -16960 0
FLAG -5024 -17120 Tap1_sim
IOPIN -5024 -17120 Out
FLAG -5152 -17120 Tap2_sim
IOPIN -5152 -17120 Out
FLAG -4208 -17328 Tap1
IOPIN -4208 -17328 In
FLAG -4688 -16864 Tap2
IOPIN -4688 -16864 In
FLAG -4672 -17296 Tap1
IOPIN -4672 -17296 In
FLAG -4208 -16880 Trig1
IOPIN -4208 -16880 In
FLAG -4208 -16816 Trig2
IOPIN -4208 -16816 In
FLAG -4208 -17392 VSS
IOPIN -4208 -17392 In
FLAG -4208 -17264 Tap2
IOPIN -4208 -17264 In
FLAG -4208 -17200 Tap2
IOPIN -4208 -17200 In
SYMBOL res -2768 -17408 R90
WINDOW 0 0 56 VBottom 2
WINDOW 3 32 56 VTop 2
SYMATTR InstName R1
SYMATTR Value 10k
SYMBOL res -3120 -17296 R270
WINDOW 0 32 56 VTop 2
WINDOW 3 0 56 VBottom 2
SYMATTR InstName R2
SYMATTR Value 10k
SYMBOL OpAmps\\LT1678 -2928 -17296 R0
SYMATTR InstName U4
SYMBOL Comparators\\LT1016 -4608 -17344 R0
SYMATTR InstName U5
SYMBOL Comparators\\LT1016 -4624 -16912 R0
SYMATTR InstName U1
SYMBOL Switches\\ADG709 -4048 -17136 R0
SYMATTR InstName U6
SYMBOL res -3728 -17312 R90
WINDOW 0 0 56 VBottom 2
WINDOW 3 43 61 VTop 2
SYMATTR InstName R7
SYMATTR Value 10k
SYMBOL res -3728 -17200 R90
WINDOW 0 0 56 VBottom 2
WINDOW 3 32 56 VTop 2
SYMATTR InstName R8
SYMATTR Value 10k
SYMBOL res -3552 -17360 R90
WINDOW 0 0 56 VBottom 2
WINDOW 3 32 56 VTop 2
SYMATTR InstName R9
SYMATTR Value 10k
SYMBOL res -3712 -17040 R180
WINDOW 0 36 76 Left 2
WINDOW 3 36 40 Left 2
SYMATTR InstName R10
SYMATTR Value 10k
SYMBOL OpAmps\\LT1492 -3664 -17312 R0
SYMATTR InstName U7
SYMBOL cap -3392 -17216 R0
SYMATTR InstName C2
SYMATTR Value 1n
SYMBOL res -3392 -17264 R90
WINDOW 0 0 56 VBottom 2
WINDOW 3 32 56 VTop 2
SYMATTR InstName R11
SYMATTR Value 1.4k
SYMBOL voltage -5152 -17088 R0
WINDOW 123 0 0 Left 0
WINDOW 39 0 0 Left 0
SYMATTR InstName V1
SYMATTR Value 3.33
SYMBOL voltage -5024 -17088 R0
WINDOW 123 0 0 Left 0
WINDOW 39 0 0 Left 0
SYMATTR InstName V2
SYMATTR Value 1.66
TEXT -3648 -17552 Left 2 ;Simple RC filtering to smooth behavior of signal\nwhen Tap is added/subtracted from it.
TEXT -4336 -17608 Left 2 ;Simple switch that yields Tap when\nSig > Tap and GND when Sig < Tap.
TEXT -3152 -17144 Left 2 ;Re-amplify signal to GND-5V for next stage.
TEXT -4888 -17088 Left 2 ;Trig is when a level crossing occurs. Either a\nrising or faslling edge indicates a level crossing.
TEXT -3840 -16976 Left 2 ;Subtractor: Sig will always be\n"constrained" from GND to 2.5V
