Version 4.1
SHEET 1 3496 1396
WIRE -160 -96 -320 -96
WIRE -464 -64 -464 -128
WIRE -320 16 -320 -96
WIRE -256 16 -320 16
WIRE -160 16 -160 -96
WIRE -96 16 -160 16
WIRE -160 32 -160 16
WIRE -160 32 -192 32
WIRE -464 48 -464 16
WIRE -384 48 -384 16
WIRE -384 48 -464 48
WIRE -256 48 -256 32
WIRE -256 48 -384 48
WIRE -224 96 -224 64
WIRE -160 96 -224 96
WIRE -384 128 -384 112
WIRE -224 128 -224 96
WIRE -464 160 -464 48
WIRE -176 208 -320 208
WIRE 864 272 848 272
WIRE 1056 272 1040 272
WIRE 1232 272 1216 272
WIRE 1424 272 1408 272
WIRE 1600 272 1584 272
WIRE 1792 272 1776 272
WIRE 1968 272 1952 272
WIRE 2160 272 2144 272
WIRE 864 304 848 304
WIRE 1056 304 1040 304
WIRE 1232 304 1216 304
WIRE 1424 304 1408 304
WIRE 1600 304 1584 304
WIRE 1792 304 1776 304
WIRE 1968 304 1952 304
WIRE 2160 304 2144 304
WIRE -320 320 -320 208
WIRE -272 320 -320 320
WIRE 256 320 256 288
WIRE 352 320 352 288
WIRE -176 336 -176 208
WIRE -176 336 -208 336
WIRE -96 336 -176 336
WIRE 864 336 848 336
WIRE 1232 336 1216 336
WIRE 1600 336 1584 336
WIRE 1968 336 1952 336
WIRE -464 352 -464 240
WIRE -384 352 -384 320
WIRE -384 352 -464 352
WIRE -272 352 -384 352
WIRE 864 368 848 368
WIRE 1232 368 1216 368
WIRE 1600 368 1584 368
WIRE 1968 368 1952 368
WIRE -240 400 -240 368
WIRE -176 400 -240 400
WIRE 864 400 848 400
WIRE 1232 400 1216 400
WIRE 1600 400 1584 400
WIRE 1968 400 1952 400
WIRE -240 416 -240 400
WIRE 160 432 160 400
WIRE 256 432 256 400
WIRE 352 432 352 400
WIRE 864 432 848 432
WIRE 1056 432 1040 432
WIRE 1232 432 1216 432
WIRE 1424 432 1408 432
WIRE 1600 432 1584 432
WIRE 1792 432 1776 432
WIRE 1968 432 1952 432
WIRE 2160 432 2144 432
WIRE -464 464 -464 352
WIRE -176 528 -320 528
WIRE -320 624 -320 528
WIRE -272 624 -320 624
WIRE -176 640 -176 528
WIRE -176 640 -208 640
WIRE -96 640 -176 640
WIRE -464 656 -464 544
WIRE -384 656 -384 624
WIRE -384 656 -464 656
WIRE -272 656 -384 656
WIRE -464 672 -464 656
WIRE -240 704 -240 672
WIRE -176 704 -240 704
WIRE -240 720 -240 704
WIRE -464 800 -464 752
FLAG 256 432 0
FLAG 256 288 VDD
IOPIN 256 288 Out
FLAG 160 432 0
FLAG 160 400 VSS
IOPIN 160 400 Out
FLAG 352 432 0
FLAG 352 288 Input
IOPIN 352 288 Out
FLAG 848 432 VSS
IOPIN 848 432 In
FLAG 848 400 VDD
IOPIN 848 400 In
FLAG 848 304 Tap0
IOPIN 848 304 In
FLAG 848 272 Input
IOPIN 848 272 In
FLAG 1056 432 S1
IOPIN 1056 432 Out
FLAG 1056 272 B1
IOPIN 1056 272 Out
FLAG 848 336 Tap1
IOPIN 848 336 In
FLAG 848 368 Tap2
IOPIN 848 368 In
FLAG 1056 304 B2
IOPIN 1056 304 Out
FLAG 1216 432 VSS
IOPIN 1216 432 In
FLAG 1216 400 VDD
IOPIN 1216 400 In
FLAG 1216 304 Tap0
IOPIN 1216 304 In
FLAG 1216 272 S1
IOPIN 1216 272 In
FLAG 1424 432 S2
IOPIN 1424 432 Out
FLAG 1424 272 B3
IOPIN 1424 272 Out
FLAG 1216 336 Tap1
IOPIN 1216 336 In
FLAG 1216 368 Tap2
IOPIN 1216 368 In
FLAG 1424 304 B4
IOPIN 1424 304 Out
FLAG 1584 432 VSS
IOPIN 1584 432 In
FLAG 1584 400 VDD
IOPIN 1584 400 In
FLAG 1584 304 Tap0
IOPIN 1584 304 In
FLAG 1584 272 S2
IOPIN 1584 272 In
FLAG 1792 432 S3
IOPIN 1792 432 Out
FLAG 1792 272 B5
IOPIN 1792 272 Out
FLAG 1584 336 Tap1
IOPIN 1584 336 In
FLAG 1584 368 Tap2
IOPIN 1584 368 In
FLAG 1792 304 B6
IOPIN 1792 304 Out
FLAG 1952 432 VSS
IOPIN 1952 432 In
FLAG 1952 400 VDD
IOPIN 1952 400 In
FLAG 1952 304 Tap0
IOPIN 1952 304 In
FLAG 1952 272 S3
IOPIN 1952 272 In
FLAG 2160 432 S4
IOPIN 2160 432 Out
FLAG 2160 272 B7
IOPIN 2160 272 Out
FLAG 1952 336 Tap1
IOPIN 1952 336 In
FLAG 1952 368 Tap2
IOPIN 1952 368 In
FLAG 2160 304 B8
IOPIN 2160 304 Out
FLAG -464 -128 VDD
IOPIN -464 -128 Out
FLAG -464 800 0
FLAG -96 16 Tap2
IOPIN -96 16 Out
FLAG -96 336 Tap1
IOPIN -96 336 Out
FLAG -96 640 Tap0
IOPIN -96 640 Out
FLAG -384 720 0
FLAG -384 416 0
FLAG -384 128 0
FLAG -240 720 0
FLAG -240 304 VDD
IOPIN -240 304 Out
FLAG -240 416 0
FLAG -224 0 VDD
IOPIN -224 0 Out
FLAG -224 128 0
FLAG -384 16 Tap2_l
IOPIN -384 16 Out
FLAG -384 624 Tap0_l
IOPIN -384 624 Out
FLAG -240 608 VDD
IOPIN -240 608 Out
FLAG -384 320 Tap1_l
IOPIN -384 320 Out
SYMBOL voltage 256 304 R0
WINDOW 123 0 0 Left 0
WINDOW 39 0 0 Left 0
SYMATTR InstName V1
SYMATTR Value 5
SYMBOL voltage 352 304 R0
WINDOW 123 0 0 Left 0
WINDOW 39 0 0 Left 0
WINDOW 3 38 96 Left 2
SYMATTR Value SINE(2.5 2 5k)
SYMATTR InstName V2
SYMBOL res -480 -80 R0
SYMATTR InstName R1
SYMATTR Value 1k
SYMBOL res -480 144 R0
SYMATTR InstName R2
SYMATTR Value 1k
SYMBOL res -480 448 R0
SYMATTR InstName R3
SYMATTR Value 1k
SYMBOL res -480 656 R0
WINDOW 0 37 52 Left 2
WINDOW 3 36 77 Left 2
SYMATTR InstName R4
SYMATTR Value 1k
SYMBOL cap -400 48 R0
WINDOW 0 40 22 Left 2
WINDOW 3 38 48 Left 2
SYMATTR InstName C1
SYMATTR Value 100nF
SYMBOL cap -400 352 R0
WINDOW 0 50 16 Left 2
WINDOW 3 45 39 Left 2
SYMATTR InstName C2
SYMATTR Value 100nF
SYMBOL cap -400 656 R0
WINDOW 0 41 18 Left 2
WINDOW 3 41 45 Left 2
SYMATTR InstName C3
SYMATTR Value 100nF
SYMBOL OpAmps\\ADA4891 -240 576 R0
WINDOW 3 -53 -71 Left 2
SYMATTR InstName U1
SYMBOL cap -192 640 R0
WINDOW 0 45 19 Left 2
WINDOW 3 46 45 Left 2
SYMATTR InstName C4
SYMATTR Value 1µF
SYMBOL OpAmps\\ADA4891 -240 272 R0
WINDOW 3 -51 -82 Left 2
SYMATTR InstName U2
SYMBOL cap -192 336 R0
WINDOW 0 45 19 Left 2
WINDOW 3 46 45 Left 2
SYMATTR InstName C5
SYMATTR Value 1µF
SYMBOL OpAmps\\ADA4891 -224 -32 R0
WINDOW 3 -55 -81 Left 2
SYMATTR InstName U3
SYMBOL cap -176 32 R0
WINDOW 0 45 19 Left 2
WINDOW 3 46 45 Left 2
SYMATTR InstName C6
SYMATTR Value 1µF
SYMBOL stage_1bit_rev2 944 352 R0
SYMATTR InstName X5
SYMBOL stage_1bit_rev2 1312 352 R0
SYMATTR InstName X6
SYMBOL stage_1bit_rev2 1680 352 R0
SYMATTR InstName X7
SYMBOL stage_1bit_rev2 2048 352 R0
SYMATTR InstName X8
TEXT 384 432 Left 2 !.tran 0 2m 0 1u uic
TEXT 648 1064 Left 2 !B1 quant 0 V=floor(V(Input)/0.0195)*0.0195
TEXT 640 752 Left 2 !B_b1 b1_out 0 V=if(V(B1)>V(Tap1), 1, 0)\nB_b2 b2_out 0 V=if(V(B2)>V(Tap1), 1, 0)\nB_b3 b3_out 0 V=if(V(B3)>V(Tap1), 1, 0)\nB_b4 b4_out 0 V=if(V(B4)>V(Tap1), 1, 0)\nB_b5 b5_out 0 V=if(V(B5)>V(Tap1), 1, 0)\nB_b6 b6_out 0 V=if(V(B6)>V(Tap1), 1, 0)\nB_b7 b7_out 0 V=if(V(B7)>V(Tap1), 1, 0)\nB_b8 b8_out 0 V=if(V(B8)>V(Tap1), 1, 0)\n \nB2 reconstruction 0 V=((128*V(b1_out) + 64*V(b2_out) + 32*V(b3_out) + 16*V(b4_out) + 8*V(b5_out) + 4*V(b6_out) + 2*V(b7_out) + 1*V(b8_out))/255) * 5
TEXT 80 496 Left 2 !.ic V(tap0_l)=1.25 V(tap1_l)=2.5 V(tap2_l)=3.75
