Version 4.1
SHEET 1 2628 1444
WIRE 0 -96 -32 -96
WIRE 0 0 0 -96
WIRE 672 0 640 0
WIRE -32 16 -64 16
WIRE 1088 16 1024 16
WIRE 128 32 128 -16
WIRE 128 32 32 32
WIRE 208 32 128 32
WIRE 672 32 672 0
WIRE -224 48 -288 48
WIRE -64 48 -144 48
WIRE -32 48 -64 48
WIRE 1104 48 1024 48
WIRE 1232 48 1168 48
WIRE 544 96 512 96
WIRE -64 144 -64 48
WIRE 16 144 -64 144
WIRE 128 144 128 32
WIRE 128 144 96 144
WIRE 1024 144 1024 48
WIRE 1104 144 1024 144
WIRE 1232 144 1232 48
WIRE 1232 144 1184 144
WIRE 544 160 512 160
WIRE 928 192 800 192
WIRE 1024 192 1024 144
WIRE 1024 192 1008 192
WIRE 0 208 0 64
WIRE 0 208 -32 208
WIRE 1088 208 1088 16
WIRE 544 224 512 224
WIRE 1024 224 1024 192
WIRE 1056 224 1024 224
WIRE 1232 240 1232 144
WIRE 1232 240 1120 240
WIRE 1264 240 1232 240
WIRE 1056 256 1024 256
WIRE 0 272 -32 272
WIRE 544 288 512 288
WIRE 928 304 912 304
WIRE 1024 304 1024 256
WIRE 1024 304 1008 304
WIRE 1024 352 1024 304
WIRE 0 368 0 272
WIRE 208 368 208 32
WIRE 224 368 208 368
WIRE -32 384 -64 384
WIRE 336 384 320 384
WIRE 128 400 128 352
WIRE 128 400 32 400
WIRE 224 400 128 400
WIRE -224 416 -288 416
WIRE -64 416 -144 416
WIRE -32 416 -64 416
WIRE 336 416 320 416
WIRE 224 432 208 432
WIRE 1024 464 1024 432
WIRE 1088 464 1088 272
WIRE 1088 464 1024 464
WIRE -64 512 -64 416
WIRE 16 512 -64 512
WIRE 128 512 128 400
WIRE 128 512 96 512
WIRE 0 576 0 432
WIRE 0 576 -32 576
WIRE 832 608 800 608
WIRE 0 624 -32 624
WIRE 0 720 0 624
WIRE -32 736 -64 736
WIRE 128 752 128 704
WIRE 128 752 32 752
WIRE 208 752 208 432
WIRE 208 752 128 752
WIRE -224 768 -288 768
WIRE -64 768 -144 768
WIRE -32 768 -64 768
WIRE 608 816 608 784
WIRE 608 816 576 816
WIRE 736 816 736 784
WIRE 736 816 608 816
WIRE -64 864 -64 768
WIRE 16 864 -64 864
WIRE 128 864 128 752
WIRE 128 864 96 864
WIRE 0 928 0 784
WIRE 0 928 -32 928
FLAG -32 -96 VDD
IOPIN -32 -96 In
FLAG 128 -16 Comp0
IOPIN 128 -16 Out
FLAG -288 48 Tap0
IOPIN -288 48 In
FLAG -64 16 Sig
IOPIN -64 16 In
FLAG 1264 240 Out
IOPIN 1264 240 Out
FLAG 912 304 Sig
IOPIN 912 304 In
FLAG 1024 16 VDD
IOPIN 1024 16 In
FLAG 1024 464 VSS
IOPIN 1024 464 In
FLAG -32 208 VSS
IOPIN -32 208 In
FLAG -32 272 VDD
IOPIN -32 272 In
FLAG 128 352 Comp1
IOPIN 128 352 Out
FLAG -288 416 Tap1
IOPIN -288 416 In
FLAG -64 384 Sig
IOPIN -64 384 In
FLAG -32 576 VSS
IOPIN -32 576 In
FLAG -32 624 VDD
IOPIN -32 624 In
FLAG 128 704 Comp2
IOPIN 128 704 Out
FLAG -288 768 Tap2
IOPIN -288 768 In
FLAG -64 736 Sig
IOPIN -64 736 In
FLAG -32 928 VSS
IOPIN -32 928 In
FLAG 640 0 VDD
IOPIN 640 0 In
FLAG 576 816 VSS
IOPIN 576 816 In
FLAG 832 608 VDD
IOPIN 832 608 In
FLAG 544 544 VSS
IOPIN 544 544 In
FLAG 544 480 VSS
IOPIN 544 480 In
FLAG 544 416 VSS
IOPIN 544 416 In
FLAG 544 352 VSS
IOPIN 544 352 In
FLAG 512 224 Tap0
IOPIN 512 224 In
FLAG 512 160 Tap1
IOPIN 512 160 In
FLAG 512 96 Tap2
IOPIN 512 96 In
FLAG 512 288 VSS
IOPIN 512 288 In
FLAG 544 672 B1
IOPIN 544 672 In
FLAG 544 608 B2
IOPIN 544 608 In
FLAG 336 416 B2
IOPIN 336 416 Out
FLAG 336 384 B1
IOPIN 336 384 Out
SYMBOL res 1024 176 R90
WINDOW 0 0 56 VBottom 2
WINDOW 3 43 61 VTop 2
SYMATTR InstName R1
SYMATTR Value 5k
SYMBOL res 1024 288 R90
WINDOW 0 0 56 VBottom 2
WINDOW 3 32 56 VTop 2
SYMATTR InstName R2
SYMATTR Value 5k
SYMBOL res 1200 128 R90
WINDOW 0 0 56 VBottom 2
WINDOW 3 32 56 VTop 2
SYMATTR InstName R3
SYMATTR Value 20k
SYMBOL res 1040 448 R180
WINDOW 0 36 76 Left 2
WINDOW 3 36 40 Left 2
SYMATTR InstName R4
SYMATTR Value 20k
SYMBOL cap 1168 32 R90
WINDOW 0 0 32 VBottom 2
WINDOW 3 32 32 VTop 2
SYMATTR InstName C1
SYMATTR Value 1pF
SYMBOL OpAmps\\ADA4891 1088 176 R0
SYMATTR InstName U2
SYMBOL res -128 32 R90
WINDOW 0 61 81 VBottom 2
WINDOW 3 33 32 VTop 2
SYMATTR InstName R5
SYMATTR Value 1k
SYMBOL res 0 160 R270
WINDOW 0 31 32 VTop 2
WINDOW 3 58 81 VBottom 2
SYMATTR InstName R7
SYMATTR Value 470k
SYMBOL res -128 400 R90
WINDOW 0 61 81 VBottom 2
WINDOW 3 33 32 VTop 2
SYMATTR InstName R6
SYMATTR Value 1k
SYMBOL res 0 528 R270
WINDOW 0 31 32 VTop 2
WINDOW 3 58 81 VBottom 2
SYMATTR InstName R8
SYMATTR Value 470k
SYMBOL res -128 752 R90
WINDOW 0 61 81 VBottom 2
WINDOW 3 33 32 VTop 2
SYMATTR InstName R9
SYMATTR Value 1k
SYMBOL res 0 880 R270
WINDOW 0 31 32 VTop 2
WINDOW 3 57 90 VBottom 2
SYMATTR InstName R10
SYMATTR Value 470k
SYMBOL Switches\\ADG709 672 352 R0
SYMATTR InstName U1
SYMBOL Encoder 208 368 R0
WINDOW 0 19 -29 Left 2
SYMATTR InstName Encoder
SYMBOL Comparators\\LTC6752 0 688 R0
SYMATTR InstName U3
SYMBOL Comparators\\LTC6752 0 336 R0
SYMATTR InstName U4
SYMBOL Comparators\\LTC6752 0 -32 R0
SYMATTR InstName U5
